Version 4
SHEET 1 1180 680
WIRE 672 -192 -176 -192
WIRE 672 -160 672 -192
WIRE 624 -80 592 -80
WIRE 672 -80 672 -160
WIRE 672 0 672 -64
WIRE 592 48 592 -80
WIRE 592 48 16 48
WIRE -176 96 -176 -192
WIRE 16 96 16 48
WIRE 672 144 672 80
WIRE 592 224 592 48
WIRE 624 224 592 224
WIRE 672 240 672 160
WIRE -176 272 -176 176
WIRE 16 272 16 176
WIRE 16 272 -176 272
WIRE 672 272 672 240
WIRE 672 272 16 272
WIRE 672 288 672 272
FLAG 672 288 0
SYMBOL voltage 16 80 R0
WINDOW 123 0 0 Left 0
WINDOW 39 0 0 Left 0
SYMATTR InstName Vg
SYMATTR Value PULSE(0 1.8 5n 0.1n 0.1n 10n 50n)
SYMBOL voltage -176 80 R0
WINDOW 123 0 0 Left 0
WINDOW 39 0 0 Left 0
SYMATTR InstName Vd
SYMATTR Value 0.5
SYMBOL nmos 624 144 R0
SYMATTR InstName M1
SYMATTR Value TSMC180nmN w=1um l=180nm
SYMBOL pmos 624 -160 R0
SYMATTR InstName M2
SYMATTR Value TSMC180nmP w=1um l=180nm
SYMBOL res 656 -16 R0
SYMATTR InstName R
SYMATTR Value 1m
TEXT -176 392 Left 2 !.INC C:\\Users\\Riccardo Triozzi\\Desktop\\spice_simulation\\libraries\\tsmc180nm.lib
TEXT -176 440 Left 2 !.dc Vg 0 1.8 1m
TEXT -176 488 Left 2 !;tran 20n
